
#======================================================================
# CRYSTAL DATA
#----------------------------------------------------------------------
data_VESTA_phase_1

_chemical_name_common                  ''
_cell_length_a                         6.51200(10)
_cell_length_b                         18.9545(4)
_cell_length_c                         9.7582(2)
_cell_angle_alpha                      90.000000
_cell_angle_beta                       108.9210(10)
_cell_angle_gamma                      90.000000
_cell_volume                           1139.389552
_space_group_name_H-M_alt              'C 1 c 1'
_space_group_IT_number                 9

loop_
_space_group_symop_operation_xyz
   'x, y, z'
   'x, -y, z+1/2'
   'x+1/2, y+1/2, z'
   'x+1/2, -y+1/2, z+1/2'

loop_
   _atom_site_label
   _atom_site_occupancy
   _atom_site_fract_x
   _atom_site_fract_y
   _atom_site_fract_z
   _atom_site_adp_type
   _atom_site_U_iso_or_equiv
   _atom_site_type_symbol
   Ca1        1.0     0.10828(7)   0.39282(2)   0.44663(5)  Uani  0.004088 Ca
   Al1        1.0     0.92063(9)   0.46706(3)   0.06407(6)  Uani  0.002285 Al
   Al2        1.0     0.33397(9)   0.21207(3)   0.39957(6)  Uani  0.002370 Al
   Si1        1.0     0.49973(7)   0.37970(2)  -0.00005(5)  Uani  0.002171 Si
   Si2        1.0     0.20823(7)   0.33277(2)   0.16798(5)  Uani  0.002081 Si
   Si3        1.0     0.02847(7)   0.41793(2)  -0.20202(5)  Uani  0.002109 Si
   O1         1.0    -0.00422(6)   0.478944(19) -0.09268(4)  Uani  0.004471 O
   O2         1.0    -0.00473(5)   0.449884(19) -0.36063(4)  Uani  0.003681 O
   O3         1.0    -0.14175(6)   0.354760(19) -0.21665(4)  Uani  0.004940 O
   O4         1.0     0.62925(6)   0.313284(19) -0.03164(4)  Uani  0.005057 O
   O5         1.0     0.27092(6)   0.296051(19)  0.32473(4)  Uani  0.003910 O
   O6         1.0     0.08400(5)   0.28149(2)   0.03718(4)  Uani  0.004703 O
   O7         1.0     0.43298(6)   0.36125(2)   0.14434(4)  Uani  0.004538 O
   O8         1.0     0.06527(6)   0.401178(19)  0.18247(4)  Uani  0.004446 O
   O9         1.0     0.27855(5)   0.39015(2)  -0.13528(4)  Uani  0.004818 O
   O10        1.0     0.64521(5)   0.450389(19)  0.02932(4)  Uani  0.004579 O
   O11        1.0     0.46750(7)   0.42299(2)   0.55937(6)  Uani  0.012715 O
   O12        1.0     0.20301(8)   0.30440(2)   0.62495(5)  Uani  0.010163 O
   O13        1.0    -0.21754(7)   0.32881(3)   0.39000(5)  Uani  0.011340 O

loop_
   _atom_site_aniso_label
   _atom_site_aniso_U_11
   _atom_site_aniso_U_22
   _atom_site_aniso_U_33
   _atom_site_aniso_U_12
   _atom_site_aniso_U_13
   _atom_site_aniso_U_23
   Ca1	 0.00492  0.00360  0.00402  0.00033  0.00183 -0.00046
   Al1	 0.00280  0.00174  0.00247  0.00002  0.00107 -0.00018
   Al2	 0.00242  0.00180  0.00298  0.00016  0.00100  0.00035
   Si1	 0.00170  0.00236  0.00267  0.00010  0.00101  0.00004
   Si2	 0.00208  0.00209  0.00198  0.00008  0.00053  0.00009
   Si3	 0.00260  0.00195  0.00188 -0.00006  0.00087  0.00034
   O1	 0.00683  0.00401  0.00366 -0.00026  0.00320 -0.00073
   O2	 0.00546  0.00290  0.00295  0.00073  0.00173  0.00104
   O3	 0.00492  0.00417  0.00548 -0.00169  0.00134  0.00135
   O4	 0.00554  0.00382  0.00727  0.00140  0.00409  0.00008
   O5	 0.00536  0.00333  0.00315  0.00081  0.00153  0.00111
   O6	 0.00414  0.00496  0.00404 -0.00024 -0.00001 -0.00130
   O7	 0.00377  0.00677  0.00356 -0.00123  0.00186  0.00019
   O8	 0.00522  0.00338  0.00484  0.00185  0.00177  0.00099
   O9	 0.00324  0.00634  0.00413  0.00077  0.00017  0.00048
   O10	 0.00346  0.00325  0.00711 -0.00082  0.00183 -0.00019
   O11	 0.00678  0.00874  0.02020 -0.00276  0.00103  0.00241
   O12	 0.01843  0.00540  0.00635  0.00162  0.00359 -0.00024
   O13	 0.00601  0.01586  0.01030 -0.00294  0.00009  0.00267
